@<TRIPOS>MOLECULE
LIG
   10     9     1     0     0
SMALL
bcc


@<TRIPOS>ATOM
      1   C       -26.0670    6.5150  -21.7120 c3      401 LIG     -0.041300
      2  C1       -25.3940    7.6930  -22.4150  c      401 LIG      0.918600
      3  C2       -25.9290    6.5430  -20.2110 c3      401 LIG     -0.085100
      4   O       -25.9450    8.0650  -23.4990  o      401 LIG     -0.825300
      5  O1       -24.3140    8.1400  -21.9320  o      401 LIG     -0.825300
      6  Cl       -25.3430    5.0050  -22.3580 cl      401 LIG     -0.279400
      7   H       -27.1270    6.4950  -21.9840 h1      401 LIG      0.048700
      8  H1       -25.8460    7.5620  -19.8390 hc      401 LIG      0.029700
      9  H2       -26.8070    6.0910  -19.7380 hc      401 LIG      0.029700
     10  H3       -25.0440    6.0050  -19.8640 hc      401 LIG      0.029700
@<TRIPOS>BOND
     1     1     2 1   
     2     1     3 1   
     3     1     6 1   
     4     1     7 1   
     5     2     4 1   
     6     2     5 1   
     7     3     8 1   
     8     3     9 1   
     9     3    10 1   
@<TRIPOS>SUBSTRUCTURE
     1 LIG         1 TEMP              0 ****  ****    0 ROOT
